data/ieee_aw.dss
Clear

! IEEE 13 Node Test Feeder - THREE PHASE THREE WIRE VERSION
! All lines and loads converted to balanced three-phase
! Based on Tennessee Tech University script

Set DefaultBaseFrequency=60

New circuit.IEEE13_3Wire
~ basekv=115 pu=1.0001 phases=3 bus1=SourceBus
~ Angle=30
~ MVAsc3=20000 MVASC1=21000
~ baseMVA=1

!SUB TRANSFORMER DEFINITION
New Transformer.Sub Phases=3 Windings=2 XHL=(8 1000 /)
~ wdg=1 bus=SourceBus conn=Wye kv=115 kva=5000 %r=(.5 1000 /)
~ wdg=2 bus=650 conn=wye kv=4.16 kva=5000 %r=(.5 1000 /)

! FEEDER 3-PHASE VOLTAGE REGULATOR (converted from single-phase bank)
New Transformer.Reg1 phases=3 XHL=0.01 kVAs=[5000 5000]
~ Buses=[650 RG60] kVs=[4.16 4.16] %LoadLoss=0.01
~ wdg=1 conn=wye
~ wdg=2 conn=wye
~ %rs=[0 0]

!TRANSFORMER DEFINITION - remains 3-phase
New Transformer.XFM1 Phases=3 Windings=2 XHL=2
~ wdg=1 bus=633 conn=Wye kv=4.16 kva=500 %r=.55 XHT=1
~ wdg=2 bus=634 conn=Wye kv=0.480 kva=500 %r=.55 XLT=1

!LINE CODES - ALL THREE PHASE
New linecode.mtx601 nphases=3 BaseFreq=60
~ rmatrix = (0.3465 | 0.1560 0.3375 | 0.1580 0.1535 0.3414 )
~ xmatrix = (1.0179 | 0.5017 1.0478 | 0.4236 0.3849 1.0348 )
~ units=mi

New linecode.mtx602 nphases=3 BaseFreq=60
~ rmatrix = (0.7526 | 0.1580 0.7475 | 0.1560 0.1535 0.7436 )
~ xmatrix = (1.1814 | 0.4236 1.1983 | 0.5017 0.3849 1.2112 )
~ units=mi

New Linecode.mtx606 nphases=3 Units=mi
~ Rmatrix=[0.791721 |0.318476 0.781649 |0.28345 0.318476 0.791721 ]
~ Xmatrix=[0.438352 |0.0276838 0.396697 |-0.0184204 0.0276838 0.438352 ]
~ Cmatrix=[383.948 |0 383.948 |0 0 383.948 ]

!LOAD DEFINITIONS - ALL CONVERTED TO BALANCED 3-PHASE WYE
! Original total: ~3466 kW, distributed across buses

! Bus 671 - Original: 1155 kW (Delta) -> Now: 1155 kW (Wye)
New Load.671 Bus1=671.1.2.3 Phases=3 Conn=Wye Model=1 kV=4.16 kW=1155 kvar=660 vminpu=0.6 vmaxpu=1.4

! Bus 634 - Original: 160+120+120=400 kW (single phase) -> Now: 400 kW (3-phase)
New Load.634 Bus1=634.1.2.3 Phases=3 Conn=Wye Model=1 kV=4.16 kW=400 kvar=290 vminpu=0.6 vmaxpu=1.4

! Bus 645 - Original: 170 kW (single phase) -> Now: 170 kW (3-phase)
New Load.645 Bus1=645.1.2.3 Phases=3 Conn=Wye Model=1 kV=4.16 kW=170 kvar=125 vminpu=0.6 vmaxpu=1.4

! Bus 646 - Original: 230 kW (2-phase) -> Now: 230 kW (3-phase)
New Load.646 Bus1=646.1.2.3 Phases=3 Conn=Wye Model=1 kV=4.16 kW=230 kvar=132 vminpu=0.6 vmaxpu=1.4

! Bus 692 - Original: 170 kW (2-phase) -> Now: 170 kW (3-phase)
New Load.692 Bus1=692.1.2.3 Phases=3 Conn=Wye Model=1 kV=4.16 kW=170 kvar=151 vminpu=0.6 vmaxpu=1.4

! Bus 675 - Original: 485+68+290=843 kW (single phase) -> Now: 843 kW (3-phase)
New Load.675 Bus1=675.1.2.3 Phases=3 Conn=Wye Model=1 kV=4.16 kW=843 kvar=462 vminpu=0.6 vmaxpu=1.4

! Bus 611 - Original: 170 kW (single phase) -> Now: 170 kW (3-phase)
New Load.611 Bus1=611.1.2.3 Phases=3 Conn=Wye Model=1 kV=4.16 kW=170 kvar=80 vminpu=0.6 vmaxpu=1.4

! Bus 652 - Original: 128 kW (single phase) -> Now: 128 kW (3-phase)
New Load.652 Bus1=652.1.2.3 Phases=3 Conn=Wye Model=1 kV=4.16 kW=128 kvar=86 vminpu=0.6 vmaxpu=1.4

! Bus 670 - Original: 17+66+117=200 kW (single phase) -> Now: 200 kW (3-phase)
New Load.670 Bus1=670.1.2.3 Phases=3 Conn=Wye Model=1 kV=4.16 kW=200 kvar=116 vminpu=0.6 vmaxpu=1.4

! TOTAL LOAD: 1155 + 400 + 170 + 230 + 170 + 843 + 170 + 128 + 200 = 3466 kW

!LINE DEFINITIONS - ALL THREE PHASE THREE WIRE
New Line.650632 Phases=3 Bus1=RG60.1.2.3 Bus2=632.1.2.3 LineCode=mtx601 Length=2000 units=ft
New Line.632670 Phases=3 Bus1=632.1.2.3 Bus2=670.1.2.3 LineCode=mtx601 Length=667 units=ft
New Line.670671 Phases=3 Bus1=670.1.2.3 Bus2=671.1.2.3 LineCode=mtx601 Length=1333 units=ft
New Line.671680 Phases=3 Bus1=671.1.2.3 Bus2=680.1.2.3 LineCode=mtx601 Length=1000 units=ft
New Line.632633 Phases=3 Bus1=632.1.2.3 Bus2=633.1.2.3 LineCode=mtx602 Length=500 units=ft
New Line.632645 Phases=3 Bus1=632.1.2.3 Bus2=645.1.2.3 LineCode=mtx601 Length=500 units=ft
New Line.645646 Phases=3 Bus1=645.1.2.3 Bus2=646.1.2.3 LineCode=mtx601 Length=300 units=ft
New Line.692675 Phases=3 Bus1=692.1.2.3 Bus2=675.1.2.3 LineCode=mtx602 Length=500 units=ft
New Line.671684 Phases=3 Bus1=671.1.2.3 Bus2=684.1.2.3 LineCode=mtx601 Length=300 units=ft
New Line.684611 Phases=3 Bus1=684.1.2.3 Bus2=611.1.2.3 LineCode=mtx601 Length=300 units=ft
New Line.684652 Phases=3 Bus1=684.1.2.3 Bus2=652.1.2.3 LineCode=mtx601 Length=800 units=ft

!SWITCH DEFINITION - THREE PHASE
New Line.671692 Phases=3 Bus1=671.1.2.3 Bus2=692.1.2.3 Switch=y r1=1e-4 r0=1e-4 x1=0.000 x0=0.000 c1=0.000 c0=0.000 enabled=y
!New Line.632671 Phases=3 Bus1=632.1.2.3 Bus2=671.1.2.3 Switch=y r1=1e-4 r0=1e-4 x1=0.000 x0=0.000 c1=0.000 c0=0.000 enabled=y
!New Line.684671 Phases=3 Bus1=684.1.2.3 Bus2=671.1.2.3 Switch=y r1=1e-4 r0=1e-4 x1=0.000 x0=0.000 c1=0.000 c0=0.000 enabled=y
!New Line.633634 Phases=3 Bus1=633.1.2.3 Bus2=634.1.2.3 Switch=y r1=1e-4 r0=1e-4 x1=0.000 x0=0.000 c1=0.000 c0=0.000 enabled=y

Set Voltagebases=[115, 4.16, .48]
calcv

! Set regulator taps
!Transformer.Reg1.Taps=[1.0 1.0625]

Set Controlmode=OFF
Set tolerance=0.001

Solve

! ========================================================================
! SUMMARY: THREE PHASE THREE WIRE VERSION
! ========================================================================
! - All lines are 3-phase (phases=3, bus notation .1.2.3)
! - All loads are balanced 3-phase Wye-connected
! - Single-phase regulator bank replaced with 3-phase regulator
! - Total load preserved: 3466 kW
! - All previous single-phase and two-phase elements converted
! ========================================================================